* Model Definitions
.INCLUDE ~/Spice/Models/OPA356.MOD
.INCLUDE ~/Spice/Models/TLV3501.MOD

* NG-Spice Simulation Commands
*.control
*SET XTRTOL=1
*.endc

.OPTIONS RELTOL=.01
*.OPTIONS ABSTOL=1N VNTOL=1M
*.OPTIONS ITL4=500
*.OPTIONS RAMPTIME=10NS
*.OPTIONS METHOD=GEAR
*.OPTIONS ACCURATE=1 GMIN=1e-9

.TRAN 1n 162u
*.TRAN 1n 16u
*.DC V2 0.25 5.0 0.25
*.AC LIN 1680 50K 84Meg
*.AC LIN 1680 250K 420Meg
